
*** ChampSim Multicore Out-of-Order Simulator ***

Warmup Instructions: 1000000
Simulation Instructions: 29000000
Number of CPUs: 1
LLC sets: 8192
LLC ways: 8
Off-chip DRAM Size: 4096 MB Channels: 1 Width: 64-bit Data Rate: 1600 MT/s

CPU 0 runs /home/jiaqi/CA_Grad_Lab/lab/traces/hmmer-342870169847-trace.gz
CPU 0 Bimodal branch predictor

Warmup complete CPU 0 instructions: 1000001 cycles: 667112 (Simulation time: 0 hr 0 min 4 sec) 

Heartbeat CPU 0 instructions: 10000000 cycles: 9448443 heartbeat IPC: 1.05838 cumulative IPC: 1.0249 (Simulation time: 0 hr 0 min 43 sec) 
Heartbeat CPU 0 instructions: 20000000 cycles: 19444171 heartbeat IPC: 1.00043 cumulative IPC: 1.01187 (Simulation time: 0 hr 1 min 25 sec) 
*** Reached end of trace for Core: 0 Repeating trace: /home/jiaqi/CA_Grad_Lab/lab/traces/hmmer-342870169847-trace.gz
Heartbeat CPU 0 instructions: 30000000 cycles: 29325179 heartbeat IPC: 1.01204 cumulative IPC: 1.01193 (Simulation time: 0 hr 2 min 13 sec) 
Finished CPU 0 instructions: 29000001 cycles: 28658068 cumulative IPC: 1.01193 (Simulation time: 0 hr 2 min 13 sec) 

CPU 0 Branch Prediction Accuracy: 99.6017% MPKI: 0.189793

ChampSim completed all CPUs

Region of Interest Statistics

CPU 0 cumulative IPC: 1.01193 instructions: 29000001 cycles: 28658068
L1D TOTAL     ACCESS:   11629364  HIT:   11476710  MISS:     152654
L1D LOAD      ACCESS:    9233110  HIT:    9166048  MISS:      67062
L1D RFO       ACCESS:    2396254  HIT:    2310662  MISS:      85592
L1D PREFETCH  ACCESS:          0  HIT:          0  MISS:          0
L1D WRITEBACK ACCESS:          0  HIT:          0  MISS:          0
L1D PREFETCH  REQUESTED:          0  ISSUED:          0  USEFUL:          0  USELESS:          0
L1I TOTAL     ACCESS:    7429030  HIT:    7428699  MISS:        331
L1I LOAD      ACCESS:    7429030  HIT:    7428699  MISS:        331
L1I RFO       ACCESS:          0  HIT:          0  MISS:          0
L1I PREFETCH  ACCESS:          0  HIT:          0  MISS:          0
L1I WRITEBACK ACCESS:          0  HIT:          0  MISS:          0
L1I PREFETCH  REQUESTED:          0  ISSUED:          0  USEFUL:          0  USELESS:          0
L2C TOTAL     ACCESS:     238690  HIT:     145863  MISS:      92827
L2C LOAD      ACCESS:      67379  HIT:      60045  MISS:       7334
L2C RFO       ACCESS:      85592  HIT:        103  MISS:      85489
L2C PREFETCH  ACCESS:          0  HIT:          0  MISS:          0
L2C WRITEBACK ACCESS:      85719  HIT:      85715  MISS:          4
L2C PREFETCH  REQUESTED:          0  ISSUED:          0  USEFUL:          0  USELESS:          0
LLC TOTAL     ACCESS:     178042  HIT:     105534  MISS:      72508
LLC LOAD      ACCESS:       7334  HIT:       6091  MISS:       1243
LLC RFO       ACCESS:      85489  HIT:      14224  MISS:      71265
LLC PREFETCH  ACCESS:          0  HIT:          0  MISS:          0
LLC WRITEBACK ACCESS:      85219  HIT:      85219  MISS:          0
LLC PREFETCH  REQUESTED:          0  ISSUED:          0  USEFUL:          0  USELESS:          0
Major fault: 0 Minor fault: 1068

DRAM Statistics
 CHANNEL 0
 RQ ROW_BUFFER_HIT:      62069  ROW_BUFFER_MISS:      10439
 DBUS_CONGESTED:      24874
 WQ ROW_BUFFER_HIT:       9687  ROW_BUFFER_MISS:       9178  FULL:          0

 AVG_CONGESTED_CYCLE: 12
