
*** ChampSim Multicore Out-of-Order Simulator ***

Warmup Instructions: 1000000
Simulation Instructions: 29000000
Number of CPUs: 1
LLC sets: 16384
LLC ways: 16
Off-chip DRAM Size: 4096 MB Channels: 1 Width: 64-bit Data Rate: 1600 MT/s

CPU 0 runs /home/jiaqi/CA_Grad_Lab/lab/traces/hmmer-317520157280-trace.gz
CPU 0 Bimodal branch predictor
Initialize SRRIP state

Warmup complete CPU 0 instructions: 1000002 cycles: 660460 (Simulation time: 0 hr 0 min 4 sec) 

Heartbeat CPU 0 instructions: 10000002 cycles: 9401752 heartbeat IPC: 1.06363 cumulative IPC: 1.0296 (Simulation time: 0 hr 0 min 39 sec) 
Heartbeat CPU 0 instructions: 20000000 cycles: 18799907 heartbeat IPC: 1.06404 cumulative IPC: 1.04744 (Simulation time: 0 hr 1 min 17 sec) 
*** Reached end of trace for Core: 0 Repeating trace: /home/jiaqi/CA_Grad_Lab/lab/traces/hmmer-317520157280-trace.gz
Heartbeat CPU 0 instructions: 30000002 cycles: 28117361 heartbeat IPC: 1.07325 cumulative IPC: 1.0562 (Simulation time: 0 hr 1 min 55 sec) 
Finished CPU 0 instructions: 29000000 cycles: 27456901 cumulative IPC: 1.0562 (Simulation time: 0 hr 1 min 55 sec) 

CPU 0 Branch Prediction Accuracy: 99.544% MPKI: 0.219103

ChampSim completed all CPUs

Region of Interest Statistics

CPU 0 cumulative IPC: 1.0562 instructions: 29000000 cycles: 27456901
L1D TOTAL     ACCESS:   11835105  HIT:   11685865  MISS:     149240
L1D LOAD      ACCESS:    9320940  HIT:    9257633  MISS:      63307
L1D RFO       ACCESS:    2514165  HIT:    2428232  MISS:      85933
L1D PREFETCH  ACCESS:          0  HIT:          0  MISS:          0
L1D WRITEBACK ACCESS:          0  HIT:          0  MISS:          0
L1D PREFETCH  REQUESTED:          0  ISSUED:          0  USEFUL:          0  USELESS:          0
L1I TOTAL     ACCESS:    7385070  HIT:    7384999  MISS:         71
L1I LOAD      ACCESS:    7385070  HIT:    7384999  MISS:         71
L1I RFO       ACCESS:          0  HIT:          0  MISS:          0
L1I PREFETCH  ACCESS:          0  HIT:          0  MISS:          0
L1I WRITEBACK ACCESS:          0  HIT:          0  MISS:          0
L1I PREFETCH  REQUESTED:          0  ISSUED:          0  USEFUL:          0  USELESS:          0
L2C TOTAL     ACCESS:     235681  HIT:     143449  MISS:      92232
L2C LOAD      ACCESS:      63358  HIT:      54292  MISS:       9066
L2C RFO       ACCESS:      85932  HIT:       2783  MISS:      83149
L2C PREFETCH  ACCESS:          0  HIT:          0  MISS:          0
L2C WRITEBACK ACCESS:      86391  HIT:      86374  MISS:         17
L2C PREFETCH  REQUESTED:          0  ISSUED:          0  USEFUL:          0  USELESS:          0
LLC TOTAL     ACCESS:     175171  HIT:     149653  MISS:      25518
LLC LOAD      ACCESS:       9065  HIT:       8579  MISS:        486
LLC RFO       ACCESS:      83149  HIT:      58117  MISS:      25032
LLC PREFETCH  ACCESS:          0  HIT:          0  MISS:          0
LLC WRITEBACK ACCESS:      82957  HIT:      82957  MISS:          0
LLC PREFETCH  REQUESTED:          0  ISSUED:          0  USEFUL:          0  USELESS:          0
Major fault: 0 Minor fault: 558

DRAM Statistics
 CHANNEL 0
 RQ ROW_BUFFER_HIT:      24000  ROW_BUFFER_MISS:       1518
 DBUS_CONGESTED:       2745
 WQ ROW_BUFFER_HIT:          0  ROW_BUFFER_MISS:          0  FULL:          0

 AVG_CONGESTED_CYCLE: 7
