
*** ChampSim Multicore Out-of-Order Simulator ***

Warmup Instructions: 1000000
Simulation Instructions: 29000000
Number of CPUs: 1
LLC sets: 2048
LLC ways: 8
Off-chip DRAM Size: 4096 MB Channels: 1 Width: 64-bit Data Rate: 1600 MT/s

CPU 0 runs /home/jiaqi/CA_Grad_Lab/lab/traces/hmmer-317520157280-trace.gz
CPU 0 Bimodal branch predictor
Initialize SRRIP state

Warmup complete CPU 0 instructions: 1000002 cycles: 660460 (Simulation time: 0 hr 0 min 3 sec) 

Heartbeat CPU 0 instructions: 10000002 cycles: 9803661 heartbeat IPC: 1.02003 cumulative IPC: 0.984338 (Simulation time: 0 hr 0 min 41 sec) 
Heartbeat CPU 0 instructions: 20000000 cycles: 20466726 heartbeat IPC: 0.937817 cumulative IPC: 0.959292 (Simulation time: 0 hr 1 min 23 sec) 
*** Reached end of trace for Core: 0 Repeating trace: /home/jiaqi/CA_Grad_Lab/lab/traces/hmmer-317520157280-trace.gz
Heartbeat CPU 0 instructions: 30000002 cycles: 30260898 heartbeat IPC: 1.02102 cumulative IPC: 0.979715 (Simulation time: 0 hr 2 min 8 sec) 
Finished CPU 0 instructions: 29000000 cycles: 29600438 cumulative IPC: 0.979715 (Simulation time: 0 hr 2 min 8 sec) 

CPU 0 Branch Prediction Accuracy: 99.544% MPKI: 0.219103

ChampSim completed all CPUs

Region of Interest Statistics

CPU 0 cumulative IPC: 0.979715 instructions: 29000000 cycles: 29600438
L1D TOTAL     ACCESS:   11718608  HIT:   11569393  MISS:     149215
L1D LOAD      ACCESS:    9303816  HIT:    9240528  MISS:      63288
L1D RFO       ACCESS:    2414792  HIT:    2328865  MISS:      85927
L1D PREFETCH  ACCESS:          0  HIT:          0  MISS:          0
L1D WRITEBACK ACCESS:          0  HIT:          0  MISS:          0
L1D PREFETCH  REQUESTED:          0  ISSUED:          0  USEFUL:          0  USELESS:          0
L1I TOTAL     ACCESS:    7393342  HIT:    7393271  MISS:         71
L1I LOAD      ACCESS:    7393342  HIT:    7393271  MISS:         71
L1I RFO       ACCESS:          0  HIT:          0  MISS:          0
L1I PREFETCH  ACCESS:          0  HIT:          0  MISS:          0
L1I WRITEBACK ACCESS:          0  HIT:          0  MISS:          0
L1I PREFETCH  REQUESTED:          0  ISSUED:          0  USEFUL:          0  USELESS:          0
L2C TOTAL     ACCESS:     235655  HIT:     143424  MISS:      92231
L2C LOAD      ACCESS:      63338  HIT:      54273  MISS:       9065
L2C RFO       ACCESS:      85927  HIT:       2778  MISS:      83149
L2C PREFETCH  ACCESS:          0  HIT:          0  MISS:          0
L2C WRITEBACK ACCESS:      86390  HIT:      86373  MISS:         17
L2C PREFETCH  REQUESTED:          0  ISSUED:          0  USEFUL:          0  USELESS:          0
LLC TOTAL     ACCESS:     175170  HIT:     101956  MISS:      73214
LLC LOAD      ACCESS:       9064  HIT:       5399  MISS:       3665
LLC RFO       ACCESS:      83149  HIT:      25786  MISS:      57363
LLC PREFETCH  ACCESS:          0  HIT:          0  MISS:          0
LLC WRITEBACK ACCESS:      82957  HIT:      70771  MISS:      12186
LLC PREFETCH  REQUESTED:          0  ISSUED:          0  USEFUL:          0  USELESS:          0
Major fault: 0 Minor fault: 558

DRAM Statistics
 CHANNEL 0
 RQ ROW_BUFFER_HIT:      39341  ROW_BUFFER_MISS:      21685
 DBUS_CONGESTED:      46278
 WQ ROW_BUFFER_HIT:      12677  ROW_BUFFER_MISS:      32551  FULL:          0

 AVG_CONGESTED_CYCLE: 13
