
*** ChampSim Multicore Out-of-Order Simulator ***

Warmup Instructions: 1000000
Simulation Instructions: 29000000
Number of CPUs: 1
LLC sets: 2048
LLC ways: 8
Off-chip DRAM Size: 4096 MB Channels: 1 Width: 64-bit Data Rate: 1600 MT/s

CPU 0 runs /home/jiaqi/CA_Grad_Lab/lab/traces/hmmer-40980020068-trace.gz
CPU 0 Bimodal branch predictor

Warmup complete CPU 0 instructions: 1000001 cycles: 667181 (Simulation time: 0 hr 0 min 4 sec) 

Heartbeat CPU 0 instructions: 10000000 cycles: 10024928 heartbeat IPC: 0.997513 cumulative IPC: 0.96177 (Simulation time: 0 hr 0 min 39 sec) 
Heartbeat CPU 0 instructions: 20000000 cycles: 20807332 heartbeat IPC: 0.927437 cumulative IPC: 0.943389 (Simulation time: 0 hr 1 min 19 sec) 
*** Reached end of trace for Core: 0 Repeating trace: /home/jiaqi/CA_Grad_Lab/lab/traces/hmmer-40980020068-trace.gz
Heartbeat CPU 0 instructions: 30000001 cycles: 31547622 heartbeat IPC: 0.931074 cumulative IPC: 0.939106 (Simulation time: 0 hr 1 min 58 sec) 
Finished CPU 0 instructions: 29000000 cycles: 30880441 cumulative IPC: 0.939106 (Simulation time: 0 hr 1 min 58 sec) 

CPU 0 Branch Prediction Accuracy: 99.5438% MPKI: 0.21931

ChampSim completed all CPUs

Region of Interest Statistics

CPU 0 cumulative IPC: 0.939106 instructions: 29000000 cycles: 30880441
L1D TOTAL     ACCESS:   11545926  HIT:   11390222  MISS:     155704
L1D LOAD      ACCESS:    9211144  HIT:    9141106  MISS:      70038
L1D RFO       ACCESS:    2334782  HIT:    2249116  MISS:      85666
L1D PREFETCH  ACCESS:          0  HIT:          0  MISS:          0
L1D WRITEBACK ACCESS:          0  HIT:          0  MISS:          0
L1D PREFETCH  REQUESTED:          0  ISSUED:          0  USEFUL:          0  USELESS:          0
L1I TOTAL     ACCESS:    7440576  HIT:    7440219  MISS:        357
L1I LOAD      ACCESS:    7440576  HIT:    7440219  MISS:        357
L1I RFO       ACCESS:          0  HIT:          0  MISS:          0
L1I PREFETCH  ACCESS:          0  HIT:          0  MISS:          0
L1I WRITEBACK ACCESS:          0  HIT:          0  MISS:          0
L1I PREFETCH  REQUESTED:          0  ISSUED:          0  USEFUL:          0  USELESS:          0
L2C TOTAL     ACCESS:     242002  HIT:     147978  MISS:      94024
L2C LOAD      ACCESS:      70377  HIT:      61807  MISS:       8570
L2C RFO       ACCESS:      85665  HIT:        220  MISS:      85445
L2C PREFETCH  ACCESS:          0  HIT:          0  MISS:          0
L2C WRITEBACK ACCESS:      85960  HIT:      85951  MISS:          9
L2C PREFETCH  REQUESTED:          0  ISSUED:          0  USEFUL:          0  USELESS:          0
LLC TOTAL     ACCESS:     179336  HIT:      90571  MISS:      88765
LLC LOAD      ACCESS:       8570  HIT:       4777  MISS:       3793
LLC RFO       ACCESS:      85445  HIT:        479  MISS:      84966
LLC PREFETCH  ACCESS:          0  HIT:          0  MISS:          0
LLC WRITEBACK ACCESS:      85321  HIT:      85315  MISS:          6
LLC PREFETCH  REQUESTED:          0  ISSUED:          0  USEFUL:          0  USELESS:          0
Major fault: 0 Minor fault: 621

DRAM Statistics
 CHANNEL 0
 RQ ROW_BUFFER_HIT:      49625  ROW_BUFFER_MISS:      39133
 DBUS_CONGESTED:      79251
 WQ ROW_BUFFER_HIT:      27072  ROW_BUFFER_MISS:      45820  FULL:          0

 AVG_CONGESTED_CYCLE: 13
