
*** ChampSim Multicore Out-of-Order Simulator ***

Warmup Instructions: 1000000
Simulation Instructions: 29000000
Number of CPUs: 1
LLC sets: 2048
LLC ways: 8
Off-chip DRAM Size: 4096 MB Channels: 1 Width: 64-bit Data Rate: 1600 MT/s

CPU 0 runs /home/jiaqi/CA_Grad_Lab/lab/traces/hmmer-342870169847-trace.gz
CPU 0 Bimodal branch predictor

Warmup complete CPU 0 instructions: 1000001 cycles: 667112 (Simulation time: 0 hr 0 min 3 sec) 

Heartbeat CPU 0 instructions: 10000000 cycles: 9895506 heartbeat IPC: 1.01056 cumulative IPC: 0.975251 (Simulation time: 0 hr 0 min 43 sec) 
Heartbeat CPU 0 instructions: 20000000 cycles: 20848078 heartbeat IPC: 0.913028 cumulative IPC: 0.941481 (Simulation time: 0 hr 1 min 31 sec) 
*** Reached end of trace for Core: 0 Repeating trace: /home/jiaqi/CA_Grad_Lab/lab/traces/hmmer-342870169847-trace.gz
Heartbeat CPU 0 instructions: 30000000 cycles: 31472681 heartbeat IPC: 0.941212 cumulative IPC: 0.941388 (Simulation time: 0 hr 2 min 17 sec) 
Finished CPU 0 instructions: 29000001 cycles: 30805570 cumulative IPC: 0.941388 (Simulation time: 0 hr 2 min 17 sec) 

CPU 0 Branch Prediction Accuracy: 99.6017% MPKI: 0.189793

ChampSim completed all CPUs

Region of Interest Statistics

CPU 0 cumulative IPC: 0.941388 instructions: 29000001 cycles: 30805570
L1D TOTAL     ACCESS:   11555606  HIT:   11402954  MISS:     152652
L1D LOAD      ACCESS:    9220716  HIT:    9153652  MISS:      67064
L1D RFO       ACCESS:    2334890  HIT:    2249302  MISS:      85588
L1D PREFETCH  ACCESS:          0  HIT:          0  MISS:          0
L1D WRITEBACK ACCESS:          0  HIT:          0  MISS:          0
L1D PREFETCH  REQUESTED:          0  ISSUED:          0  USEFUL:          0  USELESS:          0
L1I TOTAL     ACCESS:    7440458  HIT:    7440127  MISS:        331
L1I LOAD      ACCESS:    7440458  HIT:    7440127  MISS:        331
L1I RFO       ACCESS:          0  HIT:          0  MISS:          0
L1I PREFETCH  ACCESS:          0  HIT:          0  MISS:          0
L1I WRITEBACK ACCESS:          0  HIT:          0  MISS:          0
L1I PREFETCH  REQUESTED:          0  ISSUED:          0  USEFUL:          0  USELESS:          0
L2C TOTAL     ACCESS:     238688  HIT:     145861  MISS:      92827
L2C LOAD      ACCESS:      67381  HIT:      60047  MISS:       7334
L2C RFO       ACCESS:      85588  HIT:         99  MISS:      85489
L2C PREFETCH  ACCESS:          0  HIT:          0  MISS:          0
L2C WRITEBACK ACCESS:      85719  HIT:      85715  MISS:          4
L2C PREFETCH  REQUESTED:          0  ISSUED:          0  USEFUL:          0  USELESS:          0
LLC TOTAL     ACCESS:     178042  HIT:      89296  MISS:      88746
LLC LOAD      ACCESS:       7334  HIT:       4015  MISS:       3319
LLC RFO       ACCESS:      85489  HIT:         65  MISS:      85424
LLC PREFETCH  ACCESS:          0  HIT:          0  MISS:          0
LLC WRITEBACK ACCESS:      85219  HIT:      85216  MISS:          3
LLC PREFETCH  REQUESTED:          0  ISSUED:          0  USEFUL:          0  USELESS:          0
Major fault: 0 Minor fault: 1068

DRAM Statistics
 CHANNEL 0
 RQ ROW_BUFFER_HIT:      54914  ROW_BUFFER_MISS:      33829
 DBUS_CONGESTED:      76496
 WQ ROW_BUFFER_HIT:      30631  ROW_BUFFER_MISS:      42254  FULL:          0

 AVG_CONGESTED_CYCLE: 13
