
*** ChampSim Multicore Out-of-Order Simulator ***

Warmup Instructions: 1000000
Simulation Instructions: 29000000
Number of CPUs: 1
LLC sets: 8192
LLC ways: 8
Off-chip DRAM Size: 4096 MB Channels: 1 Width: 64-bit Data Rate: 1600 MT/s

CPU 0 runs /home/jiaqi/CA_Grad_Lab/lab/traces/hmmer-40980020068-trace.gz
CPU 0 Bimodal branch predictor
Initialize SRRIP state

Warmup complete CPU 0 instructions: 1000001 cycles: 667181 (Simulation time: 0 hr 0 min 3 sec) 

Heartbeat CPU 0 instructions: 10000000 cycles: 9597272 heartbeat IPC: 1.04196 cumulative IPC: 1.00783 (Simulation time: 0 hr 0 min 33 sec) 
Heartbeat CPU 0 instructions: 20000000 cycles: 18958728 heartbeat IPC: 1.06821 cumulative IPC: 1.03873 (Simulation time: 0 hr 1 min 7 sec) 
*** Reached end of trace for Core: 0 Repeating trace: /home/jiaqi/CA_Grad_Lab/lab/traces/hmmer-40980020068-trace.gz
Heartbeat CPU 0 instructions: 30000001 cycles: 28236744 heartbeat IPC: 1.07782 cumulative IPC: 1.05188 (Simulation time: 0 hr 1 min 39 sec) 
Finished CPU 0 instructions: 29000000 cycles: 27569563 cumulative IPC: 1.05188 (Simulation time: 0 hr 1 min 39 sec) 

CPU 0 Branch Prediction Accuracy: 99.5438% MPKI: 0.21931

ChampSim completed all CPUs

Region of Interest Statistics

CPU 0 cumulative IPC: 1.05188 instructions: 29000000 cycles: 27569563
L1D TOTAL     ACCESS:   11740542  HIT:   11584822  MISS:     155720
L1D LOAD      ACCESS:    9243954  HIT:    9173904  MISS:      70050
L1D RFO       ACCESS:    2496588  HIT:    2410918  MISS:      85670
L1D PREFETCH  ACCESS:          0  HIT:          0  MISS:          0
L1D WRITEBACK ACCESS:          0  HIT:          0  MISS:          0
L1D PREFETCH  REQUESTED:          0  ISSUED:          0  USEFUL:          0  USELESS:          0
L1I TOTAL     ACCESS:    7411275  HIT:    7410918  MISS:        357
L1I LOAD      ACCESS:    7411275  HIT:    7410918  MISS:        357
L1I RFO       ACCESS:          0  HIT:          0  MISS:          0
L1I PREFETCH  ACCESS:          0  HIT:          0  MISS:          0
L1I WRITEBACK ACCESS:          0  HIT:          0  MISS:          0
L1I PREFETCH  REQUESTED:          0  ISSUED:          0  USEFUL:          0  USELESS:          0
L2C TOTAL     ACCESS:     242019  HIT:     147994  MISS:      94025
L2C LOAD      ACCESS:      70389  HIT:      61818  MISS:       8571
L2C RFO       ACCESS:      85669  HIT:        224  MISS:      85445
L2C PREFETCH  ACCESS:          0  HIT:          0  MISS:          0
L2C WRITEBACK ACCESS:      85961  HIT:      85952  MISS:          9
L2C PREFETCH  REQUESTED:          0  ISSUED:          0  USEFUL:          0  USELESS:          0
LLC TOTAL     ACCESS:     179337  HIT:     148999  MISS:      30338
LLC LOAD      ACCESS:       8571  HIT:       7336  MISS:       1235
LLC RFO       ACCESS:      85445  HIT:      56342  MISS:      29103
LLC PREFETCH  ACCESS:          0  HIT:          0  MISS:          0
LLC WRITEBACK ACCESS:      85321  HIT:      85321  MISS:          0
LLC PREFETCH  REQUESTED:          0  ISSUED:          0  USEFUL:          0  USELESS:          0
Major fault: 0 Minor fault: 621

DRAM Statistics
 CHANNEL 0
 RQ ROW_BUFFER_HIT:      27059  ROW_BUFFER_MISS:       3279
 DBUS_CONGESTED:       4293
 WQ ROW_BUFFER_HIT:          0  ROW_BUFFER_MISS:          0  FULL:          0

 AVG_CONGESTED_CYCLE: 8
