
*** ChampSim Multicore Out-of-Order Simulator ***

Warmup Instructions: 1000000
Simulation Instructions: 29000000
Number of CPUs: 1
LLC sets: 8192
LLC ways: 8
Off-chip DRAM Size: 4096 MB Channels: 1 Width: 64-bit Data Rate: 1600 MT/s

CPU 0 runs /home/jiaqi/CA_Grad_Lab/lab/traces/hmmer-342870169847-trace.gz
CPU 0 Bimodal branch predictor
Initialize SRRIP state

Warmup complete CPU 0 instructions: 1000001 cycles: 667112 (Simulation time: 0 hr 0 min 3 sec) 

Heartbeat CPU 0 instructions: 10000000 cycles: 9448443 heartbeat IPC: 1.05838 cumulative IPC: 1.0249 (Simulation time: 0 hr 0 min 44 sec) 
Heartbeat CPU 0 instructions: 20000000 cycles: 19462782 heartbeat IPC: 0.998568 cumulative IPC: 1.01087 (Simulation time: 0 hr 1 min 24 sec) 
*** Reached end of trace for Core: 0 Repeating trace: /home/jiaqi/CA_Grad_Lab/lab/traces/hmmer-342870169847-trace.gz
Heartbeat CPU 0 instructions: 30000000 cycles: 29327495 heartbeat IPC: 1.01371 cumulative IPC: 1.01185 (Simulation time: 0 hr 2 min 8 sec) 
Finished CPU 0 instructions: 29000001 cycles: 28660384 cumulative IPC: 1.01185 (Simulation time: 0 hr 2 min 8 sec) 

CPU 0 Branch Prediction Accuracy: 99.6017% MPKI: 0.189793

ChampSim completed all CPUs

Region of Interest Statistics

CPU 0 cumulative IPC: 1.01185 instructions: 29000001 cycles: 28660384
L1D TOTAL     ACCESS:   11630141  HIT:   11477488  MISS:     152653
L1D LOAD      ACCESS:    9233075  HIT:    9166014  MISS:      67061
L1D RFO       ACCESS:    2397066  HIT:    2311474  MISS:      85592
L1D PREFETCH  ACCESS:          0  HIT:          0  MISS:          0
L1D WRITEBACK ACCESS:          0  HIT:          0  MISS:          0
L1D PREFETCH  REQUESTED:          0  ISSUED:          0  USEFUL:          0  USELESS:          0
L1I TOTAL     ACCESS:    7429032  HIT:    7428701  MISS:        331
L1I LOAD      ACCESS:    7429032  HIT:    7428701  MISS:        331
L1I RFO       ACCESS:          0  HIT:          0  MISS:          0
L1I PREFETCH  ACCESS:          0  HIT:          0  MISS:          0
L1I WRITEBACK ACCESS:          0  HIT:          0  MISS:          0
L1I PREFETCH  REQUESTED:          0  ISSUED:          0  USEFUL:          0  USELESS:          0
L2C TOTAL     ACCESS:     238689  HIT:     145862  MISS:      92827
L2C LOAD      ACCESS:      67378  HIT:      60044  MISS:       7334
L2C RFO       ACCESS:      85592  HIT:        103  MISS:      85489
L2C PREFETCH  ACCESS:          0  HIT:          0  MISS:          0
L2C WRITEBACK ACCESS:      85719  HIT:      85715  MISS:          4
L2C PREFETCH  REQUESTED:          0  ISSUED:          0  USEFUL:          0  USELESS:          0
LLC TOTAL     ACCESS:     178042  HIT:     105458  MISS:      72584
LLC LOAD      ACCESS:       7334  HIT:       5847  MISS:       1487
LLC RFO       ACCESS:      85489  HIT:      14427  MISS:      71062
LLC PREFETCH  ACCESS:          0  HIT:          0  MISS:          0
LLC WRITEBACK ACCESS:      85219  HIT:      85184  MISS:         35
LLC PREFETCH  REQUESTED:          0  ISSUED:          0  USEFUL:          0  USELESS:          0
Major fault: 0 Minor fault: 1068

DRAM Statistics
 CHANNEL 0
 RQ ROW_BUFFER_HIT:      62258  ROW_BUFFER_MISS:      10291
 DBUS_CONGESTED:      24517
 WQ ROW_BUFFER_HIT:       9664  ROW_BUFFER_MISS:       8890  FULL:          0

 AVG_CONGESTED_CYCLE: 12
