
*** ChampSim Multicore Out-of-Order Simulator ***

Warmup Instructions: 1000000
Simulation Instructions: 29000000
Number of CPUs: 1
LLC sets: 2048
LLC ways: 8
Off-chip DRAM Size: 4096 MB Channels: 1 Width: 64-bit Data Rate: 1600 MT/s

CPU 0 runs /home/jiaqi/CA_Grad_Lab/lab/traces/hmmer-40980020068-trace.gz
CPU 0 Bimodal branch predictor
Initialize SRRIP state

Warmup complete CPU 0 instructions: 1000001 cycles: 667181 (Simulation time: 0 hr 0 min 3 sec) 

Heartbeat CPU 0 instructions: 10000000 cycles: 10031516 heartbeat IPC: 0.996858 cumulative IPC: 0.961093 (Simulation time: 0 hr 0 min 37 sec) 
Heartbeat CPU 0 instructions: 20000000 cycles: 20900371 heartbeat IPC: 0.92006 cumulative IPC: 0.939051 (Simulation time: 0 hr 1 min 16 sec) 
*** Reached end of trace for Core: 0 Repeating trace: /home/jiaqi/CA_Grad_Lab/lab/traces/hmmer-40980020068-trace.gz
Heartbeat CPU 0 instructions: 30000001 cycles: 31746301 heartbeat IPC: 0.922005 cumulative IPC: 0.933102 (Simulation time: 0 hr 1 min 56 sec) 
Finished CPU 0 instructions: 29000000 cycles: 31079120 cumulative IPC: 0.933102 (Simulation time: 0 hr 1 min 56 sec) 

CPU 0 Branch Prediction Accuracy: 99.5438% MPKI: 0.21931

ChampSim completed all CPUs

Region of Interest Statistics

CPU 0 cumulative IPC: 0.933102 instructions: 29000000 cycles: 31079120
L1D TOTAL     ACCESS:   11547203  HIT:   11391505  MISS:     155698
L1D LOAD      ACCESS:    9210720  HIT:    9140687  MISS:      70033
L1D RFO       ACCESS:    2336483  HIT:    2250818  MISS:      85665
L1D PREFETCH  ACCESS:          0  HIT:          0  MISS:          0
L1D WRITEBACK ACCESS:          0  HIT:          0  MISS:          0
L1D PREFETCH  REQUESTED:          0  ISSUED:          0  USEFUL:          0  USELESS:          0
L1I TOTAL     ACCESS:    7440272  HIT:    7439915  MISS:        357
L1I LOAD      ACCESS:    7440272  HIT:    7439915  MISS:        357
L1I RFO       ACCESS:          0  HIT:          0  MISS:          0
L1I PREFETCH  ACCESS:          0  HIT:          0  MISS:          0
L1I WRITEBACK ACCESS:          0  HIT:          0  MISS:          0
L1I PREFETCH  REQUESTED:          0  ISSUED:          0  USEFUL:          0  USELESS:          0
L2C TOTAL     ACCESS:     241997  HIT:     147972  MISS:      94025
L2C LOAD      ACCESS:      70372  HIT:      61801  MISS:       8571
L2C RFO       ACCESS:      85664  HIT:        219  MISS:      85445
L2C PREFETCH  ACCESS:          0  HIT:          0  MISS:          0
L2C WRITEBACK ACCESS:      85961  HIT:      85952  MISS:          9
L2C PREFETCH  REQUESTED:          0  ISSUED:          0  USEFUL:          0  USELESS:          0
LLC TOTAL     ACCESS:     179337  HIT:      71165  MISS:     108172
LLC LOAD      ACCESS:       8571  HIT:       3470  MISS:       5101
LLC RFO       ACCESS:      85445  HIT:        269  MISS:      85176
LLC PREFETCH  ACCESS:          0  HIT:          0  MISS:          0
LLC WRITEBACK ACCESS:      85321  HIT:      67426  MISS:      17895
LLC PREFETCH  REQUESTED:          0  ISSUED:          0  USEFUL:          0  USELESS:          0
Major fault: 0 Minor fault: 621

DRAM Statistics
 CHANNEL 0
 RQ ROW_BUFFER_HIT:      51457  ROW_BUFFER_MISS:      38820
 DBUS_CONGESTED:      76392
 WQ ROW_BUFFER_HIT:      18086  ROW_BUFFER_MISS:      54173  FULL:          0

 AVG_CONGESTED_CYCLE: 13
