
*** ChampSim Multicore Out-of-Order Simulator ***

Warmup Instructions: 1000000
Simulation Instructions: 29000000
Number of CPUs: 1
LLC sets: 2048
LLC ways: 16
Off-chip DRAM Size: 4096 MB Channels: 1 Width: 64-bit Data Rate: 1600 MT/s

CPU 0 runs /home/jiaqi/CA_Grad_Lab/lab/traces/hmmer-317520157280-trace.gz
CPU 0 Bimodal branch predictor
CPU 0 L1D next line prefetcher

Warmup complete CPU 0 instructions: 1000002 cycles: 659895 (Simulation time: 0 hr 0 min 3 sec) 

Heartbeat CPU 0 instructions: 10000002 cycles: 9015198 heartbeat IPC: 1.10924 cumulative IPC: 1.07716 (Simulation time: 0 hr 0 min 43 sec) 
Heartbeat CPU 0 instructions: 20000000 cycles: 18223115 heartbeat IPC: 1.08602 cumulative IPC: 1.08181 (Simulation time: 0 hr 1 min 30 sec) 
*** Reached end of trace for Core: 0 Repeating trace: /home/jiaqi/CA_Grad_Lab/lab/traces/hmmer-317520157280-trace.gz
Heartbeat CPU 0 instructions: 30000002 cycles: 27438035 heartbeat IPC: 1.0852 cumulative IPC: 1.08297 (Simulation time: 0 hr 2 min 17 sec) 
Finished CPU 0 instructions: 29000000 cycles: 26778140 cumulative IPC: 1.08297 (Simulation time: 0 hr 2 min 17 sec) 

CPU 0 Branch Prediction Accuracy: 99.544% MPKI: 0.219103

ChampSim completed all CPUs

Region of Interest Statistics

CPU 0 cumulative IPC: 1.08297 instructions: 29000000 cycles: 26778140
L1D TOTAL     ACCESS:   17838836  HIT:   17677713  MISS:     161123
L1D LOAD      ACCESS:    9341168  HIT:    9332799  MISS:       8369
L1D RFO       ACCESS:    2625400  HIT:    2595183  MISS:      30217
L1D PREFETCH  ACCESS:    5872268  HIT:    5749731  MISS:     122537
L1D WRITEBACK ACCESS:          0  HIT:          0  MISS:          0
L1D PREFETCH  REQUESTED:    9746523  ISSUED:    9633504  USEFUL:     121049  USELESS:       5905
L1I TOTAL     ACCESS:    7370453  HIT:    7370382  MISS:         71
L1I LOAD      ACCESS:    7370453  HIT:    7370382  MISS:         71
L1I RFO       ACCESS:          0  HIT:          0  MISS:          0
L1I PREFETCH  ACCESS:          0  HIT:          0  MISS:          0
L1I WRITEBACK ACCESS:          0  HIT:          0  MISS:          0
L1I PREFETCH  REQUESTED:          0  ISSUED:          0  USEFUL:          0  USELESS:          0
L2C TOTAL     ACCESS:     247553  HIT:     154241  MISS:      93312
L2C LOAD      ACCESS:       8416  HIT:       6127  MISS:       2289
L2C RFO       ACCESS:      30213  HIT:       1084  MISS:      29129
L2C PREFETCH  ACCESS:     122519  HIT:      60645  MISS:      61874
L2C WRITEBACK ACCESS:      86405  HIT:      86385  MISS:         20
L2C PREFETCH  REQUESTED:          0  ISSUED:          0  USEFUL:       1363  USELESS:      60540
LLC TOTAL     ACCESS:     176360  HIT:     150471  MISS:      25889
LLC LOAD      ACCESS:       2288  HIT:       2175  MISS:        113
LLC RFO       ACCESS:      29129  HIT:      20283  MISS:       8846
LLC PREFETCH  ACCESS:      61874  HIT:      44944  MISS:      16930
LLC WRITEBACK ACCESS:      83069  HIT:      83069  MISS:          0
LLC PREFETCH  REQUESTED:          0  ISSUED:          0  USEFUL:       1080  USELESS:        266
Major fault: 0 Minor fault: 558
CPU 0 L1D next line prefetcher final stats

DRAM Statistics
 CHANNEL 0
 RQ ROW_BUFFER_HIT:      24202  ROW_BUFFER_MISS:       1669
 DBUS_CONGESTED:       3097
 WQ ROW_BUFFER_HIT:        224  ROW_BUFFER_MISS:        168  FULL:          0

 AVG_CONGESTED_CYCLE: 13
