
*** ChampSim Multicore Out-of-Order Simulator ***

Warmup Instructions: 1000000
Simulation Instructions: 29000000
Number of CPUs: 1
LLC sets: 2048
LLC ways: 16
Off-chip DRAM Size: 4096 MB Channels: 1 Width: 64-bit Data Rate: 1600 MT/s

CPU 0 runs /home/jiaqi/CA_Grad_Lab/lab/traces/hmmer-342870169847-trace.gz
CPU 0 Bimodal branch predictor
Initialize SRRIP state

Warmup complete CPU 0 instructions: 1000001 cycles: 667112 (Simulation time: 0 hr 0 min 3 sec) 

Heartbeat CPU 0 instructions: 10000000 cycles: 9448443 heartbeat IPC: 1.05838 cumulative IPC: 1.0249 (Simulation time: 0 hr 0 min 42 sec) 
Heartbeat CPU 0 instructions: 20000000 cycles: 20267114 heartbeat IPC: 0.924328 cumulative IPC: 0.969388 (Simulation time: 0 hr 1 min 27 sec) 
*** Reached end of trace for Core: 0 Repeating trace: /home/jiaqi/CA_Grad_Lab/lab/traces/hmmer-342870169847-trace.gz
Heartbeat CPU 0 instructions: 30000000 cycles: 30921578 heartbeat IPC: 0.938574 cumulative IPC: 0.958536 (Simulation time: 0 hr 2 min 12 sec) 
Finished CPU 0 instructions: 29000001 cycles: 30254467 cumulative IPC: 0.958536 (Simulation time: 0 hr 2 min 12 sec) 

CPU 0 Branch Prediction Accuracy: 99.6017% MPKI: 0.189793

ChampSim completed all CPUs

Region of Interest Statistics

CPU 0 cumulative IPC: 0.958536 instructions: 29000001 cycles: 30254467
L1D TOTAL     ACCESS:   11567503  HIT:   11414855  MISS:     152648
L1D LOAD      ACCESS:    9222776  HIT:    9155717  MISS:      67059
L1D RFO       ACCESS:    2344727  HIT:    2259138  MISS:      85589
L1D PREFETCH  ACCESS:          0  HIT:          0  MISS:          0
L1D WRITEBACK ACCESS:          0  HIT:          0  MISS:          0
L1D PREFETCH  REQUESTED:          0  ISSUED:          0  USEFUL:          0  USELESS:          0
L1I TOTAL     ACCESS:    7438372  HIT:    7438041  MISS:        331
L1I LOAD      ACCESS:    7438372  HIT:    7438041  MISS:        331
L1I RFO       ACCESS:          0  HIT:          0  MISS:          0
L1I PREFETCH  ACCESS:          0  HIT:          0  MISS:          0
L1I WRITEBACK ACCESS:          0  HIT:          0  MISS:          0
L1I PREFETCH  REQUESTED:          0  ISSUED:          0  USEFUL:          0  USELESS:          0
L2C TOTAL     ACCESS:     238683  HIT:     145858  MISS:      92825
L2C LOAD      ACCESS:      67376  HIT:      60043  MISS:       7333
L2C RFO       ACCESS:      85589  HIT:        101  MISS:      85488
L2C PREFETCH  ACCESS:          0  HIT:          0  MISS:          0
L2C WRITEBACK ACCESS:      85718  HIT:      85714  MISS:          4
L2C PREFETCH  REQUESTED:          0  ISSUED:          0  USEFUL:          0  USELESS:          0
LLC TOTAL     ACCESS:     178040  HIT:      81959  MISS:      96081
LLC LOAD      ACCESS:       7333  HIT:       4602  MISS:       2731
LLC RFO       ACCESS:      85488  HIT:        239  MISS:      85249
LLC PREFETCH  ACCESS:          0  HIT:          0  MISS:          0
LLC WRITEBACK ACCESS:      85219  HIT:      77118  MISS:       8101
LLC PREFETCH  REQUESTED:          0  ISSUED:          0  USEFUL:          0  USELESS:          0
Major fault: 0 Minor fault: 1068

DRAM Statistics
 CHANNEL 0
 RQ ROW_BUFFER_HIT:      61448  ROW_BUFFER_MISS:      26530
 DBUS_CONGESTED:      59264
 WQ ROW_BUFFER_HIT:      19087  ROW_BUFFER_MISS:      37362  FULL:          0

 AVG_CONGESTED_CYCLE: 13
