
*** ChampSim Multicore Out-of-Order Simulator ***

Warmup Instructions: 1000000
Simulation Instructions: 29000000
Number of CPUs: 1
LLC sets: 4096
LLC ways: 32
Off-chip DRAM Size: 4096 MB Channels: 1 Width: 64-bit Data Rate: 1600 MT/s

CPU 0 runs /home/jiaqi/CA_Grad_Lab/lab/traces/hmmer-342870169847-trace.gz
CPU 0 Bimodal branch predictor
CPU 0 L2C IP-based stride prefetcher

Warmup complete CPU 0 instructions: 1000001 cycles: 667219 (Simulation time: 0 hr 0 min 3 sec) 

Heartbeat CPU 0 instructions: 10000000 cycles: 9388374 heartbeat IPC: 1.06515 cumulative IPC: 1.03197 (Simulation time: 0 hr 0 min 32 sec) 
Heartbeat CPU 0 instructions: 20000000 cycles: 19195326 heartbeat IPC: 1.01968 cumulative IPC: 1.02547 (Simulation time: 0 hr 1 min 6 sec) 
*** Reached end of trace for Core: 0 Repeating trace: /home/jiaqi/CA_Grad_Lab/lab/traces/hmmer-342870169847-trace.gz
Heartbeat CPU 0 instructions: 30000000 cycles: 28415194 heartbeat IPC: 1.08461 cumulative IPC: 1.04512 (Simulation time: 0 hr 1 min 39 sec) 
Finished CPU 0 instructions: 29000001 cycles: 27747976 cumulative IPC: 1.04512 (Simulation time: 0 hr 1 min 39 sec) 

CPU 0 Branch Prediction Accuracy: 99.6017% MPKI: 0.189793

ChampSim completed all CPUs

Region of Interest Statistics

CPU 0 cumulative IPC: 1.04512 instructions: 29000001 cycles: 27747976
L1D TOTAL     ACCESS:   11679627  HIT:   11526958  MISS:     152669
L1D LOAD      ACCESS:    9243747  HIT:    9176676  MISS:      67071
L1D RFO       ACCESS:    2435880  HIT:    2350282  MISS:      85598
L1D PREFETCH  ACCESS:          0  HIT:          0  MISS:          0
L1D WRITEBACK ACCESS:          0  HIT:          0  MISS:          0
L1D PREFETCH  REQUESTED:          0  ISSUED:          0  USEFUL:          0  USELESS:          0
L1I TOTAL     ACCESS:    7420302  HIT:    7419971  MISS:        331
L1I LOAD      ACCESS:    7420302  HIT:    7419971  MISS:        331
L1I RFO       ACCESS:          0  HIT:          0  MISS:          0
L1I PREFETCH  ACCESS:          0  HIT:          0  MISS:          0
L1I WRITEBACK ACCESS:          0  HIT:          0  MISS:          0
L1I PREFETCH  REQUESTED:          0  ISSUED:          0  USEFUL:          0  USELESS:          0
L2C TOTAL     ACCESS:     383320  HIT:     290658  MISS:      92662
L2C LOAD      ACCESS:      67387  HIT:      65632  MISS:       1755
L2C RFO       ACCESS:      85598  HIT:        119  MISS:      85479
L2C PREFETCH  ACCESS:     144619  HIT:     139195  MISS:       5424
L2C WRITEBACK ACCESS:      85716  HIT:      85712  MISS:          4
L2C PREFETCH  REQUESTED:     150517  ISSUED:     150517  USEFUL:       5923  USELESS:        284
LLC TOTAL     ACCESS:     177917  HIT:     119453  MISS:      58464
LLC LOAD      ACCESS:       1755  HIT:       1224  MISS:        531
LLC RFO       ACCESS:      85479  HIT:      28153  MISS:      57326
LLC PREFETCH  ACCESS:       5425  HIT:       4818  MISS:        607
LLC WRITEBACK ACCESS:      85258  HIT:      85258  MISS:          0
LLC PREFETCH  REQUESTED:          0  ISSUED:          0  USEFUL:        239  USELESS:          0
Major fault: 0 Minor fault: 1068
CPU 0 L2C PC-based stride prefetcher final stats

DRAM Statistics
 CHANNEL 0
 RQ ROW_BUFFER_HIT:      55394  ROW_BUFFER_MISS:       3070
 DBUS_CONGESTED:       5988
 WQ ROW_BUFFER_HIT:          0  ROW_BUFFER_MISS:          0  FULL:          0

 AVG_CONGESTED_CYCLE: 7
