
*** ChampSim Multicore Out-of-Order Simulator ***

Warmup Instructions: 1000000
Simulation Instructions: 29000000
Number of CPUs: 1
LLC sets: 2048
LLC ways: 16
Off-chip DRAM Size: 4096 MB Channels: 1 Width: 64-bit Data Rate: 1600 MT/s

CPU 0 runs /home/jiaqi/CA_Grad_Lab/lab/traces/hmmer-40980020068-trace.gz
CPU 0 Bimodal branch predictor
CPU 0 L1D next line prefetcher
Initialize SRRIP state

Warmup complete CPU 0 instructions: 1000001 cycles: 667076 (Simulation time: 0 hr 0 min 3 sec) 

Heartbeat CPU 0 instructions: 10000000 cycles: 9066963 heartbeat IPC: 1.10291 cumulative IPC: 1.07144 (Simulation time: 0 hr 0 min 28 sec) 
Heartbeat CPU 0 instructions: 20000000 cycles: 18279697 heartbeat IPC: 1.08545 cumulative IPC: 1.07877 (Simulation time: 0 hr 0 min 56 sec) 
*** Reached end of trace for Core: 0 Repeating trace: /home/jiaqi/CA_Grad_Lab/lab/traces/hmmer-40980020068-trace.gz
Heartbeat CPU 0 instructions: 30000001 cycles: 27486373 heartbeat IPC: 1.08617 cumulative IPC: 1.08131 (Simulation time: 0 hr 1 min 25 sec) 
Finished CPU 0 instructions: 29000000 cycles: 26819297 cumulative IPC: 1.08131 (Simulation time: 0 hr 1 min 25 sec) 

CPU 0 Branch Prediction Accuracy: 99.5438% MPKI: 0.21931

ChampSim completed all CPUs

Region of Interest Statistics

CPU 0 cumulative IPC: 1.08131 instructions: 29000000 cycles: 26819297
L1D TOTAL     ACCESS:   17621396  HIT:   17452212  MISS:     169184
L1D LOAD      ACCESS:    9272291  HIT:    9263138  MISS:       9153
L1D RFO       ACCESS:    2588766  HIT:    2558602  MISS:      30164
L1D PREFETCH  ACCESS:    5760339  HIT:    5630472  MISS:     129867
L1D WRITEBACK ACCESS:          0  HIT:          0  MISS:          0
L1D PREFETCH  REQUESTED:    9681583  ISSUED:    9566255  USEFUL:     128305  USELESS:       6378
L1I TOTAL     ACCESS:    7400899  HIT:    7400542  MISS:        357
L1I LOAD      ACCESS:    7400899  HIT:    7400542  MISS:        357
L1I RFO       ACCESS:          0  HIT:          0  MISS:          0
L1I PREFETCH  ACCESS:          0  HIT:          0  MISS:          0
L1I WRITEBACK ACCESS:          0  HIT:          0  MISS:          0
L1I PREFETCH  REQUESTED:          0  ISSUED:          0  USEFUL:          0  USELESS:          0
L2C TOTAL     ACCESS:     255487  HIT:     160628  MISS:      94859
L2C LOAD      ACCESS:       9488  HIT:       6888  MISS:       2600
L2C RFO       ACCESS:      29971  HIT:        208  MISS:      29763
L2C PREFETCH  ACCESS:     130035  HIT:      67548  MISS:      62487
L2C WRITEBACK ACCESS:      85993  HIT:      85984  MISS:          9
L2C PREFETCH  REQUESTED:          0  ISSUED:          0  USEFUL:       1176  USELESS:      61380
LLC TOTAL     ACCESS:     180188  HIT:     125570  MISS:      54618
LLC LOAD      ACCESS:       2600  HIT:       1176  MISS:       1424
LLC RFO       ACCESS:      29763  HIT:      13131  MISS:      16632
LLC PREFETCH  ACCESS:      62487  HIT:      30128  MISS:      32359
LLC WRITEBACK ACCESS:      85338  HIT:      81135  MISS:       4203
LLC PREFETCH  REQUESTED:          0  ISSUED:          0  USEFUL:        672  USELESS:      15021
Major fault: 0 Minor fault: 621
CPU 0 L1D next line prefetcher final stats

DRAM Statistics
 CHANNEL 0
 RQ ROW_BUFFER_HIT:      39000  ROW_BUFFER_MISS:      11361
 DBUS_CONGESTED:      24023
 WQ ROW_BUFFER_HIT:       8845  ROW_BUFFER_MISS:      11467  FULL:          0

 AVG_CONGESTED_CYCLE: 14
