
*** ChampSim Multicore Out-of-Order Simulator ***

Warmup Instructions: 1000000
Simulation Instructions: 29000000
Number of CPUs: 1
LLC sets: 16384
LLC ways: 16
Off-chip DRAM Size: 4096 MB Channels: 1 Width: 64-bit Data Rate: 1600 MT/s

CPU 0 runs /home/jiaqi/CA_Grad_Lab/lab/traces/hmmer-368940182854-trace.gz
CPU 0 Bimodal branch predictor
Initialize DRRIP state
Assign rand_sets[0]: 454  LLC: 16384
rand_sets[0]: 454
Assign rand_sets[1]: 5758  LLC: 16384
rand_sets[1]: 5758
Assign rand_sets[2]: 10113  LLC: 16384
rand_sets[2]: 10113
Assign rand_sets[3]: 1131  LLC: 16384
rand_sets[3]: 1131
Assign rand_sets[4]: 14667  LLC: 16384
rand_sets[4]: 14667
Assign rand_sets[5]: 5627  LLC: 16384
rand_sets[5]: 5627
Assign rand_sets[6]: 6626  LLC: 16384
rand_sets[6]: 6626
Assign rand_sets[7]: 7419  LLC: 16384
rand_sets[7]: 7419
Assign rand_sets[8]: 16212  LLC: 16384
rand_sets[8]: 16212
Assign rand_sets[9]: 4086  LLC: 16384
rand_sets[9]: 4086
Assign rand_sets[10]: 2749  LLC: 16384
rand_sets[10]: 2749
Assign rand_sets[11]: 12767  LLC: 16384
rand_sets[11]: 12767
Assign rand_sets[12]: 9084  LLC: 16384
rand_sets[12]: 9084
Assign rand_sets[13]: 12060  LLC: 16384
rand_sets[13]: 12060
Assign rand_sets[14]: 15841  LLC: 16384
rand_sets[14]: 15841
Assign rand_sets[15]: 1159  LLC: 16384
rand_sets[15]: 1159
Assign rand_sets[16]: 8705  LLC: 16384
rand_sets[16]: 8705
Assign rand_sets[17]: 4799  LLC: 16384
rand_sets[17]: 4799
Assign rand_sets[18]: 8753  LLC: 16384
rand_sets[18]: 8753
Assign rand_sets[19]: 9182  LLC: 16384
rand_sets[19]: 9182
Assign rand_sets[20]: 10582  LLC: 16384
rand_sets[20]: 10582
Assign rand_sets[21]: 4978  LLC: 16384
rand_sets[21]: 4978
Assign rand_sets[22]: 4111  LLC: 16384
rand_sets[22]: 4111
Assign rand_sets[23]: 10311  LLC: 16384
rand_sets[23]: 10311
Assign rand_sets[24]: 11367  LLC: 16384
rand_sets[24]: 11367
Assign rand_sets[25]: 13670  LLC: 16384
rand_sets[25]: 13670
Assign rand_sets[26]: 647  LLC: 16384
rand_sets[26]: 647
Assign rand_sets[27]: 13145  LLC: 16384
rand_sets[27]: 13145
Assign rand_sets[28]: 3498  LLC: 16384
rand_sets[28]: 3498
Assign rand_sets[29]: 9352  LLC: 16384
rand_sets[29]: 9352
Assign rand_sets[30]: 14140  LLC: 16384
rand_sets[30]: 14140
Assign rand_sets[31]: 12121  LLC: 16384
rand_sets[31]: 12121
Assign rand_sets[32]: 12010  LLC: 16384
rand_sets[32]: 12010
Assign rand_sets[33]: 5718  LLC: 16384
rand_sets[33]: 5718
Assign rand_sets[34]: 8467  LLC: 16384
rand_sets[34]: 8467
Assign rand_sets[35]: 2683  LLC: 16384
rand_sets[35]: 2683
Assign rand_sets[36]: 12754  LLC: 16384
rand_sets[36]: 12754
Assign rand_sets[37]: 11653  LLC: 16384
rand_sets[37]: 11653
Assign rand_sets[38]: 6561  LLC: 16384
rand_sets[38]: 6561
Assign rand_sets[39]: 10712  LLC: 16384
rand_sets[39]: 10712
Assign rand_sets[40]: 13628  LLC: 16384
rand_sets[40]: 13628
Assign rand_sets[41]: 15188  LLC: 16384
rand_sets[41]: 15188
Assign rand_sets[42]: 15701  LLC: 16384
rand_sets[42]: 15701
Assign rand_sets[43]: 4143  LLC: 16384
rand_sets[43]: 4143
Assign rand_sets[44]: 6967  LLC: 16384
rand_sets[44]: 6967
Assign rand_sets[45]: 15022  LLC: 16384
rand_sets[45]: 15022
Assign rand_sets[46]: 7781  LLC: 16384
rand_sets[46]: 7781
Assign rand_sets[47]: 13403  LLC: 16384
rand_sets[47]: 13403
Assign rand_sets[48]: 9178  LLC: 16384
rand_sets[48]: 9178
Assign rand_sets[49]: 8450  LLC: 16384
rand_sets[49]: 8450
Assign rand_sets[50]: 14969  LLC: 16384
rand_sets[50]: 14969
Assign rand_sets[51]: 920  LLC: 16384
rand_sets[51]: 920
Assign rand_sets[52]: 10444  LLC: 16384
rand_sets[52]: 10444
Assign rand_sets[53]: 8419  LLC: 16384
rand_sets[53]: 8419
Assign rand_sets[54]: 7962  LLC: 16384
rand_sets[54]: 7962
Assign rand_sets[55]: 2934  LLC: 16384
rand_sets[55]: 2934
Assign rand_sets[56]: 1422  LLC: 16384
rand_sets[56]: 1422
Assign rand_sets[57]: 14943  LLC: 16384
rand_sets[57]: 14943
Assign rand_sets[58]: 10457  LLC: 16384
rand_sets[58]: 10457
Assign rand_sets[59]: 1945  LLC: 16384
rand_sets[59]: 1945
Assign rand_sets[60]: 14479  LLC: 16384
rand_sets[60]: 14479
Assign rand_sets[61]: 13599  LLC: 16384
rand_sets[61]: 13599
Assign rand_sets[62]: 2367  LLC: 16384
rand_sets[62]: 2367
Assign rand_sets[63]: 3894  LLC: 16384
rand_sets[63]: 3894

Warmup complete CPU 0 instructions: 1000003 cycles: 665358 (Simulation time: 0 hr 0 min 3 sec) 

Heartbeat CPU 0 instructions: 10000000 cycles: 9390203 heartbeat IPC: 1.06494 cumulative IPC: 1.03154 (Simulation time: 0 hr 0 min 38 sec) 
Heartbeat CPU 0 instructions: 20000000 cycles: 18789167 heartbeat IPC: 1.06395 cumulative IPC: 1.04834 (Simulation time: 0 hr 1 min 15 sec) 
*** Reached end of trace for Core: 0 Repeating trace: /home/jiaqi/CA_Grad_Lab/lab/traces/hmmer-368940182854-trace.gz
Heartbeat CPU 0 instructions: 30000002 cycles: 28299057 heartbeat IPC: 1.05154 cumulative IPC: 1.04944 (Simulation time: 0 hr 1 min 52 sec) 
Finished CPU 0 instructions: 29000003 cycles: 27633700 cumulative IPC: 1.04944 (Simulation time: 0 hr 1 min 52 sec) 

CPU 0 Branch Prediction Accuracy: 99.3028% MPKI: 0.345655

ChampSim completed all CPUs

Region of Interest Statistics

CPU 0 cumulative IPC: 1.04944 instructions: 29000003 cycles: 27633700
L1D TOTAL     ACCESS:   11848200  HIT:   11693607  MISS:     154593
L1D LOAD      ACCESS:    9283355  HIT:    9215434  MISS:      67921
L1D RFO       ACCESS:    2564845  HIT:    2478173  MISS:      86672
L1D PREFETCH  ACCESS:          0  HIT:          0  MISS:          0
L1D WRITEBACK ACCESS:          0  HIT:          0  MISS:          0
L1D PREFETCH  REQUESTED:          0  ISSUED:          0  USEFUL:          0  USELESS:          0
L1I TOTAL     ACCESS:    7378828  HIT:    7378419  MISS:        409
L1I LOAD      ACCESS:    7378828  HIT:    7378419  MISS:        409
L1I RFO       ACCESS:          0  HIT:          0  MISS:          0
L1I PREFETCH  ACCESS:          0  HIT:          0  MISS:          0
L1I WRITEBACK ACCESS:          0  HIT:          0  MISS:          0
L1I PREFETCH  REQUESTED:          0  ISSUED:          0  USEFUL:          0  USELESS:          0
L2C TOTAL     ACCESS:     242769  HIT:     158531  MISS:      84238
L2C LOAD      ACCESS:      68316  HIT:      59323  MISS:       8993
L2C RFO       ACCESS:      86671  HIT:      11453  MISS:      75218
L2C PREFETCH  ACCESS:          0  HIT:          0  MISS:          0
L2C WRITEBACK ACCESS:      87782  HIT:      87755  MISS:         27
L2C PREFETCH  REQUESTED:          0  ISSUED:          0  USEFUL:          0  USELESS:          0
LLC TOTAL     ACCESS:     160128  HIT:     145937  MISS:      14191
LLC LOAD      ACCESS:       8993  HIT:       8040  MISS:        953
LLC RFO       ACCESS:      75218  HIT:      61980  MISS:      13238
LLC PREFETCH  ACCESS:          0  HIT:          0  MISS:          0
LLC WRITEBACK ACCESS:      75917  HIT:      75917  MISS:          0
LLC PREFETCH  REQUESTED:          0  ISSUED:          0  USEFUL:          0  USELESS:          0
Major fault: 0 Minor fault: 374

DRAM Statistics
 CHANNEL 0
 RQ ROW_BUFFER_HIT:      13117  ROW_BUFFER_MISS:       1074
 DBUS_CONGESTED:       1497
 WQ ROW_BUFFER_HIT:          0  ROW_BUFFER_MISS:          0  FULL:          0

 AVG_CONGESTED_CYCLE: 7
