
*** ChampSim Multicore Out-of-Order Simulator ***

Warmup Instructions: 1000000
Simulation Instructions: 29000000
Number of CPUs: 1
LLC sets: 2048
LLC ways: 16
Off-chip DRAM Size: 4096 MB Channels: 1 Width: 64-bit Data Rate: 1600 MT/s

CPU 0 runs /home/jiaqi/CA_Grad_Lab/lab/traces/hmmer-317520157280-trace.gz
CPU 0 Bimodal branch predictor

Warmup complete CPU 0 instructions: 1000002 cycles: 660460 (Simulation time: 0 hr 0 min 4 sec) 

Heartbeat CPU 0 instructions: 10000002 cycles: 9401752 heartbeat IPC: 1.06363 cumulative IPC: 1.0296 (Simulation time: 0 hr 0 min 47 sec) 
Heartbeat CPU 0 instructions: 20000000 cycles: 18803450 heartbeat IPC: 1.06364 cumulative IPC: 1.04724 (Simulation time: 0 hr 1 min 30 sec) 
*** Reached end of trace for Core: 0 Repeating trace: /home/jiaqi/CA_Grad_Lab/lab/traces/hmmer-317520157280-trace.gz
Heartbeat CPU 0 instructions: 30000002 cycles: 28127451 heartbeat IPC: 1.0725 cumulative IPC: 1.05581 (Simulation time: 0 hr 2 min 13 sec) 
Finished CPU 0 instructions: 29000000 cycles: 27466991 cumulative IPC: 1.05581 (Simulation time: 0 hr 2 min 13 sec) 

CPU 0 Branch Prediction Accuracy: 99.544% MPKI: 0.219103

ChampSim completed all CPUs

Region of Interest Statistics

CPU 0 cumulative IPC: 1.05581 instructions: 29000000 cycles: 27466991
L1D TOTAL     ACCESS:   11834076  HIT:   11684836  MISS:     149240
L1D LOAD      ACCESS:    9320804  HIT:    9257497  MISS:      63307
L1D RFO       ACCESS:    2513272  HIT:    2427339  MISS:      85933
L1D PREFETCH  ACCESS:          0  HIT:          0  MISS:          0
L1D WRITEBACK ACCESS:          0  HIT:          0  MISS:          0
L1D PREFETCH  REQUESTED:          0  ISSUED:          0  USEFUL:          0  USELESS:          0
L1I TOTAL     ACCESS:    7385148  HIT:    7385077  MISS:         71
L1I LOAD      ACCESS:    7385148  HIT:    7385077  MISS:         71
L1I RFO       ACCESS:          0  HIT:          0  MISS:          0
L1I PREFETCH  ACCESS:          0  HIT:          0  MISS:          0
L1I WRITEBACK ACCESS:          0  HIT:          0  MISS:          0
L1I PREFETCH  REQUESTED:          0  ISSUED:          0  USEFUL:          0  USELESS:          0
L2C TOTAL     ACCESS:     235681  HIT:     143449  MISS:      92232
L2C LOAD      ACCESS:      63358  HIT:      54292  MISS:       9066
L2C RFO       ACCESS:      85932  HIT:       2783  MISS:      83149
L2C PREFETCH  ACCESS:          0  HIT:          0  MISS:          0
L2C WRITEBACK ACCESS:      86391  HIT:      86374  MISS:         17
L2C PREFETCH  REQUESTED:          0  ISSUED:          0  USEFUL:          0  USELESS:          0
LLC TOTAL     ACCESS:     175171  HIT:     149336  MISS:      25835
LLC LOAD      ACCESS:       9065  HIT:       8559  MISS:        506
LLC RFO       ACCESS:      83149  HIT:      57820  MISS:      25329
LLC PREFETCH  ACCESS:          0  HIT:          0  MISS:          0
LLC WRITEBACK ACCESS:      82957  HIT:      82957  MISS:          0
LLC PREFETCH  REQUESTED:          0  ISSUED:          0  USEFUL:          0  USELESS:          0
Major fault: 0 Minor fault: 558

DRAM Statistics
 CHANNEL 0
 RQ ROW_BUFFER_HIT:      24188  ROW_BUFFER_MISS:       1630
 DBUS_CONGESTED:       3067
 WQ ROW_BUFFER_HIT:        200  ROW_BUFFER_MISS:        157  FULL:          0

 AVG_CONGESTED_CYCLE: 8
