
*** ChampSim Multicore Out-of-Order Simulator ***

Warmup Instructions: 1000000
Simulation Instructions: 29000000
Number of CPUs: 1
LLC sets: 4096
LLC ways: 16
Off-chip DRAM Size: 4096 MB Channels: 1 Width: 64-bit Data Rate: 1600 MT/s

CPU 0 runs /home/jiaqi/CA_Grad_Lab/lab/traces/hmmer-342870169847-trace.gz
CPU 0 Bimodal branch predictor

Warmup complete CPU 0 instructions: 1000001 cycles: 667112 (Simulation time: 0 hr 0 min 2 sec) 

Heartbeat CPU 0 instructions: 10000000 cycles: 9448443 heartbeat IPC: 1.05838 cumulative IPC: 1.0249 (Simulation time: 0 hr 0 min 38 sec) 
Heartbeat CPU 0 instructions: 20000000 cycles: 19346323 heartbeat IPC: 1.01032 cumulative IPC: 1.01717 (Simulation time: 0 hr 1 min 17 sec) 
*** Reached end of trace for Core: 0 Repeating trace: /home/jiaqi/CA_Grad_Lab/lab/traces/hmmer-342870169847-trace.gz
Heartbeat CPU 0 instructions: 30000000 cycles: 28775511 heartbeat IPC: 1.06054 cumulative IPC: 1.03172 (Simulation time: 0 hr 1 min 55 sec) 
Finished CPU 0 instructions: 29000001 cycles: 28108400 cumulative IPC: 1.03172 (Simulation time: 0 hr 1 min 55 sec) 

CPU 0 Branch Prediction Accuracy: 99.6017% MPKI: 0.189793

ChampSim completed all CPUs

Region of Interest Statistics

CPU 0 cumulative IPC: 1.03172 instructions: 29000001 cycles: 28108400
L1D TOTAL     ACCESS:   11662827  HIT:   11510161  MISS:     152666
L1D LOAD      ACCESS:    9238852  HIT:    9171781  MISS:      67071
L1D RFO       ACCESS:    2423975  HIT:    2338380  MISS:      85595
L1D PREFETCH  ACCESS:          0  HIT:          0  MISS:          0
L1D WRITEBACK ACCESS:          0  HIT:          0  MISS:          0
L1D PREFETCH  REQUESTED:          0  ISSUED:          0  USEFUL:          0  USELESS:          0
L1I TOTAL     ACCESS:    7424203  HIT:    7423872  MISS:        331
L1I LOAD      ACCESS:    7424203  HIT:    7423872  MISS:        331
L1I RFO       ACCESS:          0  HIT:          0  MISS:          0
L1I PREFETCH  ACCESS:          0  HIT:          0  MISS:          0
L1I WRITEBACK ACCESS:          0  HIT:          0  MISS:          0
L1I PREFETCH  REQUESTED:          0  ISSUED:          0  USEFUL:          0  USELESS:          0
L2C TOTAL     ACCESS:     238701  HIT:     145875  MISS:      92826
L2C LOAD      ACCESS:      67388  HIT:      60055  MISS:       7333
L2C RFO       ACCESS:      85594  HIT:        105  MISS:      85489
L2C PREFETCH  ACCESS:          0  HIT:          0  MISS:          0
L2C WRITEBACK ACCESS:      85719  HIT:      85715  MISS:          4
L2C PREFETCH  REQUESTED:          0  ISSUED:          0  USEFUL:          0  USELESS:          0
LLC TOTAL     ACCESS:     178041  HIT:     114794  MISS:      63247
LLC LOAD      ACCESS:       7333  HIT:       6129  MISS:       1204
LLC RFO       ACCESS:      85489  HIT:      23446  MISS:      62043
LLC PREFETCH  ACCESS:          0  HIT:          0  MISS:          0
LLC WRITEBACK ACCESS:      85219  HIT:      85219  MISS:          0
LLC PREFETCH  REQUESTED:          0  ISSUED:          0  USEFUL:          0  USELESS:          0
Major fault: 0 Minor fault: 1068

DRAM Statistics
 CHANNEL 0
 RQ ROW_BUFFER_HIT:      58318  ROW_BUFFER_MISS:       4924
 DBUS_CONGESTED:      11187
 WQ ROW_BUFFER_HIT:       2812  ROW_BUFFER_MISS:       2666  FULL:          0

 AVG_CONGESTED_CYCLE: 10
