
*** ChampSim Multicore Out-of-Order Simulator ***

Warmup Instructions: 1000000
Simulation Instructions: 29000000
Number of CPUs: 1
LLC sets: 2048
LLC ways: 16
Off-chip DRAM Size: 4096 MB Channels: 1 Width: 64-bit Data Rate: 1600 MT/s

CPU 0 runs /home/jiaqi/CA_Grad_Lab/lab/traces/hmmer-342870169847-trace.gz
CPU 0 Bimodal branch predictor

Warmup complete CPU 0 instructions: 1000001 cycles: 667112 (Simulation time: 0 hr 0 min 3 sec) 

Heartbeat CPU 0 instructions: 10000000 cycles: 9451400 heartbeat IPC: 1.05804 cumulative IPC: 1.02456 (Simulation time: 0 hr 0 min 41 sec) 
Heartbeat CPU 0 instructions: 20000000 cycles: 20227427 heartbeat IPC: 0.927986 cumulative IPC: 0.971354 (Simulation time: 0 hr 1 min 23 sec) 
*** Reached end of trace for Core: 0 Repeating trace: /home/jiaqi/CA_Grad_Lab/lab/traces/hmmer-342870169847-trace.gz
Heartbeat CPU 0 instructions: 30000000 cycles: 30786382 heartbeat IPC: 0.947063 cumulative IPC: 0.962839 (Simulation time: 0 hr 2 min 12 sec) 
Finished CPU 0 instructions: 29000001 cycles: 30119271 cumulative IPC: 0.962839 (Simulation time: 0 hr 2 min 12 sec) 

CPU 0 Branch Prediction Accuracy: 99.6017% MPKI: 0.189793

ChampSim completed all CPUs

Region of Interest Statistics

CPU 0 cumulative IPC: 0.962839 instructions: 29000001 cycles: 30119271
L1D TOTAL     ACCESS:   11566468  HIT:   11413821  MISS:     152647
L1D LOAD      ACCESS:    9222785  HIT:    9155727  MISS:      67058
L1D RFO       ACCESS:    2343683  HIT:    2258094  MISS:      85589
L1D PREFETCH  ACCESS:          0  HIT:          0  MISS:          0
L1D WRITEBACK ACCESS:          0  HIT:          0  MISS:          0
L1D PREFETCH  REQUESTED:          0  ISSUED:          0  USEFUL:          0  USELESS:          0
L1I TOTAL     ACCESS:    7438663  HIT:    7438332  MISS:        331
L1I LOAD      ACCESS:    7438663  HIT:    7438332  MISS:        331
L1I RFO       ACCESS:          0  HIT:          0  MISS:          0
L1I PREFETCH  ACCESS:          0  HIT:          0  MISS:          0
L1I WRITEBACK ACCESS:          0  HIT:          0  MISS:          0
L1I PREFETCH  REQUESTED:          0  ISSUED:          0  USEFUL:          0  USELESS:          0
L2C TOTAL     ACCESS:     238683  HIT:     145857  MISS:      92826
L2C LOAD      ACCESS:      67375  HIT:      60042  MISS:       7333
L2C RFO       ACCESS:      85589  HIT:        100  MISS:      85489
L2C PREFETCH  ACCESS:          0  HIT:          0  MISS:          0
L2C WRITEBACK ACCESS:      85719  HIT:      85715  MISS:          4
L2C PREFETCH  REQUESTED:          0  ISSUED:          0  USEFUL:          0  USELESS:          0
LLC TOTAL     ACCESS:     178041  HIT:      90935  MISS:      87106
LLC LOAD      ACCESS:       7333  HIT:       5445  MISS:       1888
LLC RFO       ACCESS:      85489  HIT:        274  MISS:      85215
LLC PREFETCH  ACCESS:          0  HIT:          0  MISS:          0
LLC WRITEBACK ACCESS:      85219  HIT:      85216  MISS:          3
LLC PREFETCH  REQUESTED:          0  ISSUED:          0  USEFUL:          0  USELESS:          0
Major fault: 0 Minor fault: 1068

DRAM Statistics
 CHANNEL 0
 RQ ROW_BUFFER_HIT:      60742  ROW_BUFFER_MISS:      26357
 DBUS_CONGESTED:      60301
 WQ ROW_BUFFER_HIT:      21334  ROW_BUFFER_MISS:      35370  FULL:          0

 AVG_CONGESTED_CYCLE: 13
