
*** ChampSim Multicore Out-of-Order Simulator ***

Warmup Instructions: 1000000
Simulation Instructions: 29000000
Number of CPUs: 1
LLC sets: 2048
LLC ways: 16
Off-chip DRAM Size: 4096 MB Channels: 1 Width: 64-bit Data Rate: 1600 MT/s

CPU 0 runs /home/jiaqi/CA_Grad_Lab/lab/traces/hmmer-40980020068-trace.gz
CPU 0 Bimodal branch predictor
Initialize SRRIP state

Warmup complete CPU 0 instructions: 1000001 cycles: 667181 (Simulation time: 0 hr 0 min 2 sec) 

Heartbeat CPU 0 instructions: 10000000 cycles: 9597502 heartbeat IPC: 1.04194 cumulative IPC: 1.0078 (Simulation time: 0 hr 0 min 29 sec) 
Heartbeat CPU 0 instructions: 20000000 cycles: 19301721 heartbeat IPC: 1.03048 cumulative IPC: 1.01961 (Simulation time: 0 hr 0 min 57 sec) 
*** Reached end of trace for Core: 0 Repeating trace: /home/jiaqi/CA_Grad_Lab/lab/traces/hmmer-40980020068-trace.gz
Heartbeat CPU 0 instructions: 30000001 cycles: 29061933 heartbeat IPC: 1.02457 cumulative IPC: 1.02132 (Simulation time: 0 hr 1 min 26 sec) 
Finished CPU 0 instructions: 29000000 cycles: 28394752 cumulative IPC: 1.02132 (Simulation time: 0 hr 1 min 26 sec) 

CPU 0 Branch Prediction Accuracy: 99.5438% MPKI: 0.21931

ChampSim completed all CPUs

Region of Interest Statistics

CPU 0 cumulative IPC: 1.02132 instructions: 29000000 cycles: 28394752
L1D TOTAL     ACCESS:   11679850  HIT:   11524138  MISS:     155712
L1D LOAD      ACCESS:    9232637  HIT:    9162595  MISS:      70042
L1D RFO       ACCESS:    2447213  HIT:    2361543  MISS:      85670
L1D PREFETCH  ACCESS:          0  HIT:          0  MISS:          0
L1D WRITEBACK ACCESS:          0  HIT:          0  MISS:          0
L1D PREFETCH  REQUESTED:          0  ISSUED:          0  USEFUL:          0  USELESS:          0
L1I TOTAL     ACCESS:    7421483  HIT:    7421126  MISS:        357
L1I LOAD      ACCESS:    7421483  HIT:    7421126  MISS:        357
L1I RFO       ACCESS:          0  HIT:          0  MISS:          0
L1I PREFETCH  ACCESS:          0  HIT:          0  MISS:          0
L1I WRITEBACK ACCESS:          0  HIT:          0  MISS:          0
L1I PREFETCH  REQUESTED:          0  ISSUED:          0  USEFUL:          0  USELESS:          0
L2C TOTAL     ACCESS:     242011  HIT:     147986  MISS:      94025
L2C LOAD      ACCESS:      70381  HIT:      61810  MISS:       8571
L2C RFO       ACCESS:      85669  HIT:        224  MISS:      85445
L2C PREFETCH  ACCESS:          0  HIT:          0  MISS:          0
L2C WRITEBACK ACCESS:      85961  HIT:      85952  MISS:          9
L2C PREFETCH  REQUESTED:          0  ISSUED:          0  USEFUL:          0  USELESS:          0
LLC TOTAL     ACCESS:     179337  HIT:     124824  MISS:      54513
LLC LOAD      ACCESS:       8571  HIT:       6189  MISS:       2382
LLC RFO       ACCESS:      85445  HIT:      37660  MISS:      47785
LLC PREFETCH  ACCESS:          0  HIT:          0  MISS:          0
LLC WRITEBACK ACCESS:      85321  HIT:      80975  MISS:       4346
LLC PREFETCH  REQUESTED:          0  ISSUED:          0  USEFUL:          0  USELESS:          0
Major fault: 0 Minor fault: 621

DRAM Statistics
 CHANNEL 0
 RQ ROW_BUFFER_HIT:      39199  ROW_BUFFER_MISS:      10933
 DBUS_CONGESTED:      24082
 WQ ROW_BUFFER_HIT:       9333  ROW_BUFFER_MISS:      10940  FULL:          0

 AVG_CONGESTED_CYCLE: 13
