
*** ChampSim Multicore Out-of-Order Simulator ***

Warmup Instructions: 1000000
Simulation Instructions: 29000000
Number of CPUs: 1
LLC sets: 2048
LLC ways: 8
Off-chip DRAM Size: 4096 MB Channels: 1 Width: 64-bit Data Rate: 1600 MT/s

CPU 0 runs /home/jiaqi/CA_Grad_Lab/lab/traces/hmmer-317520157280-trace.gz
CPU 0 Bimodal branch predictor

Warmup complete CPU 0 instructions: 1000002 cycles: 660460 (Simulation time: 0 hr 0 min 3 sec) 

Heartbeat CPU 0 instructions: 10000002 cycles: 9794135 heartbeat IPC: 1.02102 cumulative IPC: 0.985365 (Simulation time: 0 hr 0 min 38 sec) 
Heartbeat CPU 0 instructions: 20000000 cycles: 20381812 heartbeat IPC: 0.944494 cumulative IPC: 0.963423 (Simulation time: 0 hr 1 min 21 sec) 
*** Reached end of trace for Core: 0 Repeating trace: /home/jiaqi/CA_Grad_Lab/lab/traces/hmmer-317520157280-trace.gz
Heartbeat CPU 0 instructions: 30000002 cycles: 30068533 heartbeat IPC: 1.03234 cumulative IPC: 0.986124 (Simulation time: 0 hr 2 min 5 sec) 
Finished CPU 0 instructions: 29000000 cycles: 29408073 cumulative IPC: 0.986124 (Simulation time: 0 hr 2 min 5 sec) 

CPU 0 Branch Prediction Accuracy: 99.544% MPKI: 0.219103

ChampSim completed all CPUs

Region of Interest Statistics

CPU 0 cumulative IPC: 0.986124 instructions: 29000000 cycles: 29408073
L1D TOTAL     ACCESS:   11713677  HIT:   11564461  MISS:     149216
L1D LOAD      ACCESS:    9303835  HIT:    9240547  MISS:      63288
L1D RFO       ACCESS:    2409842  HIT:    2323914  MISS:      85928
L1D PREFETCH  ACCESS:          0  HIT:          0  MISS:          0
L1D WRITEBACK ACCESS:          0  HIT:          0  MISS:          0
L1D PREFETCH  REQUESTED:          0  ISSUED:          0  USEFUL:          0  USELESS:          0
L1I TOTAL     ACCESS:    7393024  HIT:    7392953  MISS:         71
L1I LOAD      ACCESS:    7393024  HIT:    7392953  MISS:         71
L1I RFO       ACCESS:          0  HIT:          0  MISS:          0
L1I PREFETCH  ACCESS:          0  HIT:          0  MISS:          0
L1I WRITEBACK ACCESS:          0  HIT:          0  MISS:          0
L1I PREFETCH  REQUESTED:          0  ISSUED:          0  USEFUL:          0  USELESS:          0
L2C TOTAL     ACCESS:     235656  HIT:     143425  MISS:      92231
L2C LOAD      ACCESS:      63338  HIT:      54273  MISS:       9065
L2C RFO       ACCESS:      85928  HIT:       2779  MISS:      83149
L2C PREFETCH  ACCESS:          0  HIT:          0  MISS:          0
L2C WRITEBACK ACCESS:      86390  HIT:      86373  MISS:         17
L2C PREFETCH  REQUESTED:          0  ISSUED:          0  USEFUL:          0  USELESS:          0
LLC TOTAL     ACCESS:     175170  HIT:     114892  MISS:      60278
LLC LOAD      ACCESS:       9064  HIT:       7020  MISS:       2044
LLC RFO       ACCESS:      83149  HIT:      24922  MISS:      58227
LLC PREFETCH  ACCESS:          0  HIT:          0  MISS:          0
LLC WRITEBACK ACCESS:      82957  HIT:      82950  MISS:          7
LLC PREFETCH  REQUESTED:          0  ISSUED:          0  USEFUL:          0  USELESS:          0
Major fault: 0 Minor fault: 558

DRAM Statistics
 CHANNEL 0
 RQ ROW_BUFFER_HIT:      38392  ROW_BUFFER_MISS:      21873
 DBUS_CONGESTED:      48935
 WQ ROW_BUFFER_HIT:      17321  ROW_BUFFER_MISS:      29084  FULL:          0

 AVG_CONGESTED_CYCLE: 13
