
*** ChampSim Multicore Out-of-Order Simulator ***

Warmup Instructions: 1000000
Simulation Instructions: 29000000
Number of CPUs: 1
LLC sets: 2048
LLC ways: 8
Off-chip DRAM Size: 4096 MB Channels: 1 Width: 64-bit Data Rate: 1600 MT/s

CPU 0 runs /home/jiaqi/CA_Grad_Lab/lab/traces/hmmer-342870169847-trace.gz
CPU 0 Bimodal branch predictor
Initialize SRRIP state

Warmup complete CPU 0 instructions: 1000001 cycles: 667112 (Simulation time: 0 hr 0 min 3 sec) 

Heartbeat CPU 0 instructions: 10000000 cycles: 9902823 heartbeat IPC: 1.00981 cumulative IPC: 0.974478 (Simulation time: 0 hr 0 min 39 sec) 
Heartbeat CPU 0 instructions: 20000000 cycles: 20917621 heartbeat IPC: 0.90787 cumulative IPC: 0.938248 (Simulation time: 0 hr 1 min 24 sec) 
*** Reached end of trace for Core: 0 Repeating trace: /home/jiaqi/CA_Grad_Lab/lab/traces/hmmer-342870169847-trace.gz
Heartbeat CPU 0 instructions: 30000000 cycles: 31662510 heartbeat IPC: 0.930675 cumulative IPC: 0.935623 (Simulation time: 0 hr 2 min 8 sec) 
Finished CPU 0 instructions: 29000001 cycles: 30995399 cumulative IPC: 0.935623 (Simulation time: 0 hr 2 min 8 sec) 

CPU 0 Branch Prediction Accuracy: 99.6017% MPKI: 0.189793

ChampSim completed all CPUs

Region of Interest Statistics

CPU 0 cumulative IPC: 0.935623 instructions: 29000001 cycles: 30995399
L1D TOTAL     ACCESS:   11556866  HIT:   11404223  MISS:     152643
L1D LOAD      ACCESS:    9220504  HIT:    9153451  MISS:      67053
L1D RFO       ACCESS:    2336362  HIT:    2250772  MISS:      85590
L1D PREFETCH  ACCESS:          0  HIT:          0  MISS:          0
L1D WRITEBACK ACCESS:          0  HIT:          0  MISS:          0
L1D PREFETCH  REQUESTED:          0  ISSUED:          0  USEFUL:          0  USELESS:          0
L1I TOTAL     ACCESS:    7440322  HIT:    7439991  MISS:        331
L1I LOAD      ACCESS:    7440322  HIT:    7439991  MISS:        331
L1I RFO       ACCESS:          0  HIT:          0  MISS:          0
L1I PREFETCH  ACCESS:          0  HIT:          0  MISS:          0
L1I WRITEBACK ACCESS:          0  HIT:          0  MISS:          0
L1I PREFETCH  REQUESTED:          0  ISSUED:          0  USEFUL:          0  USELESS:          0
L2C TOTAL     ACCESS:     238678  HIT:     145851  MISS:      92827
L2C LOAD      ACCESS:      67370  HIT:      60036  MISS:       7334
L2C RFO       ACCESS:      85590  HIT:        101  MISS:      85489
L2C PREFETCH  ACCESS:          0  HIT:          0  MISS:          0
L2C WRITEBACK ACCESS:      85718  HIT:      85714  MISS:          4
L2C PREFETCH  REQUESTED:          0  ISSUED:          0  USEFUL:          0  USELESS:          0
LLC TOTAL     ACCESS:     178042  HIT:      70671  MISS:     107371
LLC LOAD      ACCESS:       7334  HIT:       2654  MISS:       4680
LLC RFO       ACCESS:      85489  HIT:         10  MISS:      85479
LLC PREFETCH  ACCESS:          0  HIT:          0  MISS:          0
LLC WRITEBACK ACCESS:      85219  HIT:      68007  MISS:      17212
LLC PREFETCH  REQUESTED:          0  ISSUED:          0  USEFUL:          0  USELESS:          0
Major fault: 0 Minor fault: 1068

DRAM Statistics
 CHANNEL 0
 RQ ROW_BUFFER_HIT:      56722  ROW_BUFFER_MISS:      33437
 DBUS_CONGESTED:      72585
 WQ ROW_BUFFER_HIT:      21773  ROW_BUFFER_MISS:      50307  FULL:          0

 AVG_CONGESTED_CYCLE: 13
